<!-- overall simulation configuration -->
<configuration>
    <input>
        <net-file value="leftHandNetwork.net.xml"/>
        <route-files value="routes.rou.xml"/>
    </input>

    <time>
        <begin value="0"/>
        <end value="2000"/> <!-- Adjust the simulation end time as needed -->
    </time>
</configuration>
