<!-- simulation configuration -->
<configuration>
    <input>
        <net-file value="network.net.xml"/>
        <route-files value="sorted_random_route.rou.xml"/>
    </input>

    <output>
        <queue-output value="output/queues.xml"/>
        <tripinfo-output value="output/tripinfo.xml"/>
        <summary-output value="output/summary.xml"/>
        <vehroute-output value="output/vehroutes.xml"/>
    </output>

    <time>
        <begin value="0"/>
        <end value="2000"/>             <!-- simulation end time -->
    </time>
</configuration>
