<!-- simulation configuration -->
<configuration>
    <input>
        <net-file value="leftHandNetwork.net.xml"/>
        <route-files value="routes.rou.xml"/>
    </input>

    <output>
    </output>

    <time>
        <begin value="0"/>
        <end value="2000"/>             <!-- simulation end time -->
    </time>
</configuration>
