<!-- defines edges, lanes, & their properties -->
<edges>
    <edge id="edgeOutTop" from="nodeTop" to="nodeCenter" numLanes="1" speed="13.89" length="100" tl="tl1"/>
    <edge id="edgeOutBottom" from="nodeBottom" to="nodeCenter" numLanes="1" speed="13.89" length="100" tl="tl2"/>
    <edge id="edgeOutRight" from="nodeRight" to="nodeCenter" numLanes="1" speed="13.89" length="100" tl="tl3"/>
    <edge id="edgeOutLeft" from="nodeLeft" to="nodeCenter" numLanes="1" speed="13.89" length="100" tl="tl4"/>
    <edge id="edgeInTop" from="nodeCenter" to="nodeTop" numLanes="1" speed="13.89" length="100"/>
    <edge id="edgeInBottom" from="nodeCenter" to="nodeBottom" numLanes="1" speed="13.89" length="100"/>
    <edge id="edgeInRight" from="nodeCenter" to="nodeRight" numLanes="1" speed="13.89" length="100"/>
    <edge id="edgeInLeft" from="nodeCenter" to="nodeLeft" numLanes="1" speed="13.89" length="100"/>
</edges>