<?xml version="1.0" encoding="UTF-8"?>

<!-- generated on 2024-02-09 15:47:36 by Eclipse SUMO duarouter Version 1.19.0
<configuration xmlns:xsi="http://www.w3.org/2001/XMLSchema-instance" xsi:noNamespaceSchemaLocation="http://sumo.dlr.de/xsd/duarouterConfiguration.xsd">

    <input>
        <net-file value="network.net.xml"/>
        <route-files value="modified_trips.trips.xml"/>
    </input>

    <output>
        <output-file value="routes.rou.xml"/>
    </output>

    <time>
        <begin value="0"/>
        <end value="600"/>
    </time>

    <report>
        <no-warnings value="true"/>
        <ignore-errors value="true"/>
    </report>

</configuration>
-->

<routes xmlns:xsi="http://www.w3.org/2001/XMLSchema-instance" xsi:noNamespaceSchemaLocation="http://sumo.dlr.de/xsd/routes_file.xsd">
    <vehicle id="0" type="car" depart="0.00">
        <route edges="edgeOutBottom edgeInTop"/>
    </vehicle>
    <vehicle id="1" type="bike" depart="1.00">
        <route edges="edgeOutLeft edgeInBottom"/>
    </vehicle>
    <vehicle id="2" type="bus" depart="2.00">
        <route edges="edgeOutTop edgeInBottom"/>
    </vehicle>
    <vehicle id="3" type="car" depart="3.00">
        <route edges="edgeOutBottom edgeInRight"/>
    </vehicle>
    <vehicle id="4" type="car" depart="4.00">
        <route edges="edgeOutRight edgeInTop"/>
    </vehicle>
    <vehicle id="5" type="bike" depart="5.00">
        <route edges="edgeOutRight edgeInTop"/>
    </vehicle>
    <vehicle id="6" type="bus" depart="6.00">
        <route edges="edgeOutRight edgeInTop"/>
    </vehicle>
    <vehicle id="7" type="bike" depart="7.00">
        <route edges="edgeOutRight edgeInBottom"/>
    </vehicle>
    <vehicle id="8" type="car" depart="8.00">
        <route edges="edgeOutLeft edgeInTop"/>
    </vehicle>
    <vehicle id="9" type="bus" depart="9.00">
        <route edges="edgeOutBottom edgeInLeft"/>
    </vehicle>
    <vehicle id="10" type="bus" depart="10.00">
        <route edges="edgeOutTop edgeInRight"/>
    </vehicle>
    <vehicle id="11" type="bike" depart="11.00">
        <route edges="edgeOutTop edgeInRight"/>
    </vehicle>
    <vehicle id="12" type="car" depart="12.00">
        <route edges="edgeOutRight edgeInTop"/>
    </vehicle>
    <vehicle id="13" type="bike" depart="13.00">
        <route edges="edgeOutBottom edgeInTop"/>
    </vehicle>
    <vehicle id="14" type="bus" depart="14.00">
        <route edges="edgeOutLeft edgeInBottom"/>
    </vehicle>
    <vehicle id="15" type="bus" depart="15.00">
        <route edges="edgeOutRight edgeInLeft"/>
    </vehicle>
    <vehicle id="16" type="bike" depart="16.00">
        <route edges="edgeOutRight edgeInBottom"/>
    </vehicle>
    <vehicle id="17" type="bus" depart="17.00">
        <route edges="edgeOutLeft edgeInRight"/>
    </vehicle>
    <vehicle id="18" type="bus" depart="18.00">
        <route edges="edgeOutTop edgeInRight"/>
    </vehicle>
    <vehicle id="19" type="bus" depart="19.00">
        <route edges="edgeOutBottom edgeInLeft"/>
    </vehicle>
    <vehicle id="20" type="car" depart="20.00">
        <route edges="edgeOutLeft edgeInRight"/>
    </vehicle>
    <vehicle id="21" type="bike" depart="21.00">
        <route edges="edgeOutRight edgeInTop"/>
    </vehicle>
    <vehicle id="22" type="bus" depart="22.00">
        <route edges="edgeOutTop edgeInLeft"/>
    </vehicle>
    <vehicle id="23" type="bike" depart="23.00">
        <route edges="edgeOutLeft edgeInBottom"/>
    </vehicle>
    <vehicle id="24" type="bike" depart="24.00">
        <route edges="edgeOutRight edgeInTop"/>
    </vehicle>
    <vehicle id="25" type="car" depart="25.00">
        <route edges="edgeOutRight edgeInLeft"/>
    </vehicle>
    <vehicle id="26" type="car" depart="26.00">
        <route edges="edgeOutTop edgeInBottom"/>
    </vehicle>
    <vehicle id="27" type="car" depart="27.00">
        <route edges="edgeOutRight edgeInLeft"/>
    </vehicle>
    <vehicle id="28" type="bike" depart="28.00">
        <route edges="edgeOutLeft edgeInTop"/>
    </vehicle>
    <vehicle id="29" type="bus" depart="29.00">
        <route edges="edgeOutBottom edgeInTop"/>
    </vehicle>
    <vehicle id="30" type="bike" depart="30.00">
        <route edges="edgeOutLeft edgeInBottom"/>
    </vehicle>
    <vehicle id="31" type="car" depart="31.00">
        <route edges="edgeOutBottom edgeInLeft"/>
    </vehicle>
    <vehicle id="32" type="car" depart="32.00">
        <route edges="edgeOutTop edgeInRight"/>
    </vehicle>
    <vehicle id="33" type="bus" depart="33.00">
        <route edges="edgeOutRight edgeInBottom"/>
    </vehicle>
    <vehicle id="34" type="bike" depart="34.00">
        <route edges="edgeOutRight edgeInTop"/>
    </vehicle>
    <vehicle id="35" type="bike" depart="35.00">
        <route edges="edgeOutBottom edgeInRight"/>
    </vehicle>
    <vehicle id="36" type="bike" depart="36.00">
        <route edges="edgeOutBottom edgeInLeft"/>
    </vehicle>
    <vehicle id="37" type="bike" depart="37.00">
        <route edges="edgeOutRight edgeInTop"/>
    </vehicle>
    <vehicle id="38" type="car" depart="38.00">
        <route edges="edgeOutBottom edgeInTop"/>
    </vehicle>
    <vehicle id="39" type="bike" depart="39.00">
        <route edges="edgeOutTop edgeInRight"/>
    </vehicle>
    <vehicle id="40" type="bus" depart="40.00">
        <route edges="edgeOutLeft edgeInTop"/>
    </vehicle>
    <vehicle id="41" type="bus" depart="41.00">
        <route edges="edgeOutBottom edgeInLeft"/>
    </vehicle>
    <vehicle id="42" type="bus" depart="42.00">
        <route edges="edgeOutLeft edgeInBottom"/>
    </vehicle>
    <vehicle id="43" type="bus" depart="43.00">
        <route edges="edgeOutRight edgeInLeft"/>
    </vehicle>
    <vehicle id="44" type="car" depart="44.00">
        <route edges="edgeOutRight edgeInLeft"/>
    </vehicle>
    <vehicle id="45" type="car" depart="45.00">
        <route edges="edgeOutLeft edgeInRight"/>
    </vehicle>
    <vehicle id="46" type="bus" depart="46.00">
        <route edges="edgeOutTop edgeInBottom"/>
    </vehicle>
    <vehicle id="47" type="car" depart="47.00">
        <route edges="edgeOutTop edgeInLeft"/>
    </vehicle>
    <vehicle id="48" type="car" depart="48.00">
        <route edges="edgeOutLeft edgeInTop"/>
    </vehicle>
    <vehicle id="49" type="car" depart="49.00">
        <route edges="edgeOutBottom edgeInTop"/>
    </vehicle>
    <vehicle id="50" type="bus" depart="50.00">
        <route edges="edgeOutRight edgeInLeft"/>
    </vehicle>
    <vehicle id="51" type="car" depart="51.00">
        <route edges="edgeOutTop edgeInRight"/>
    </vehicle>
    <vehicle id="52" type="bus" depart="52.00">
        <route edges="edgeOutRight edgeInBottom"/>
    </vehicle>
    <vehicle id="53" type="bike" depart="53.00">
        <route edges="edgeOutLeft edgeInTop"/>
    </vehicle>
    <vehicle id="54" type="bus" depart="54.00">
        <route edges="edgeOutTop edgeInLeft"/>
    </vehicle>
    <vehicle id="55" type="bike" depart="55.00">
        <route edges="edgeOutTop edgeInRight"/>
    </vehicle>
    <vehicle id="56" type="bike" depart="56.00">
        <route edges="edgeOutRight edgeInTop"/>
    </vehicle>
    <vehicle id="57" type="car" depart="57.00">
        <route edges="edgeOutBottom edgeInLeft"/>
    </vehicle>
    <vehicle id="58" type="bus" depart="58.00">
        <route edges="edgeOutBottom edgeInLeft"/>
    </vehicle>
    <vehicle id="59" type="bus" depart="59.00">
        <route edges="edgeOutLeft edgeInRight"/>
    </vehicle>
    <vehicle id="60" type="bus" depart="60.00">
        <route edges="edgeOutLeft edgeInBottom"/>
    </vehicle>
    <vehicle id="61" type="bus" depart="61.00">
        <route edges="edgeOutLeft edgeInRight"/>
    </vehicle>
    <vehicle id="62" type="bike" depart="62.00">
        <route edges="edgeOutBottom edgeInRight"/>
    </vehicle>
    <vehicle id="63" type="car" depart="63.00">
        <route edges="edgeOutLeft edgeInBottom"/>
    </vehicle>
    <vehicle id="64" type="bike" depart="64.00">
        <route edges="edgeOutRight edgeInBottom"/>
    </vehicle>
    <vehicle id="65" type="bus" depart="65.00">
        <route edges="edgeOutRight edgeInTop"/>
    </vehicle>
    <vehicle id="66" type="bus" depart="66.00">
        <route edges="edgeOutTop edgeInRight"/>
    </vehicle>
    <vehicle id="67" type="bike" depart="67.00">
        <route edges="edgeOutTop edgeInBottom"/>
    </vehicle>
    <vehicle id="68" type="car" depart="68.00">
        <route edges="edgeOutTop edgeInBottom"/>
    </vehicle>
    <vehicle id="69" type="bike" depart="69.00">
        <route edges="edgeOutBottom edgeInRight"/>
    </vehicle>
    <vehicle id="70" type="car" depart="70.00">
        <route edges="edgeOutTop edgeInRight"/>
    </vehicle>
    <vehicle id="71" type="car" depart="71.00">
        <route edges="edgeOutTop edgeInRight"/>
    </vehicle>
    <vehicle id="72" type="bus" depart="72.00">
        <route edges="edgeOutTop edgeInLeft"/>
    </vehicle>
    <vehicle id="73" type="car" depart="73.00">
        <route edges="edgeOutRight edgeInTop"/>
    </vehicle>
    <vehicle id="74" type="bus" depart="74.00">
        <route edges="edgeOutRight edgeInBottom"/>
    </vehicle>
    <vehicle id="75" type="bus" depart="75.00">
        <route edges="edgeOutTop edgeInRight"/>
    </vehicle>
    <vehicle id="76" type="bus" depart="76.00">
        <route edges="edgeOutTop edgeInLeft"/>
    </vehicle>
    <vehicle id="77" type="bus" depart="77.00">
        <route edges="edgeOutTop edgeInBottom"/>
    </vehicle>
    <vehicle id="78" type="bike" depart="78.00">
        <route edges="edgeOutTop edgeInLeft"/>
    </vehicle>
    <vehicle id="79" type="bike" depart="79.00">
        <route edges="edgeOutTop edgeInLeft"/>
    </vehicle>
    <vehicle id="80" type="bus" depart="80.00">
        <route edges="edgeOutBottom edgeInTop"/>
    </vehicle>
    <vehicle id="81" type="car" depart="81.00">
        <route edges="edgeOutTop edgeInBottom"/>
    </vehicle>
    <vehicle id="82" type="bus" depart="82.00">
        <route edges="edgeOutLeft edgeInTop"/>
    </vehicle>
    <vehicle id="83" type="car" depart="83.00">
        <route edges="edgeOutBottom edgeInRight"/>
    </vehicle>
    <vehicle id="84" type="bike" depart="84.00">
        <route edges="edgeOutRight edgeInTop"/>
    </vehicle>
    <vehicle id="85" type="bus" depart="85.00">
        <route edges="edgeOutTop edgeInLeft"/>
    </vehicle>
    <vehicle id="86" type="bus" depart="86.00">
        <route edges="edgeOutBottom edgeInTop"/>
    </vehicle>
    <vehicle id="87" type="bike" depart="87.00">
        <route edges="edgeOutLeft edgeInBottom"/>
    </vehicle>
    <vehicle id="88" type="car" depart="88.00">
        <route edges="edgeOutBottom edgeInTop"/>
    </vehicle>
    <vehicle id="89" type="bike" depart="89.00">
        <route edges="edgeOutBottom edgeInTop"/>
    </vehicle>
    <vehicle id="90" type="car" depart="90.00">
        <route edges="edgeOutLeft edgeInRight"/>
    </vehicle>
    <vehicle id="91" type="bike" depart="91.00">
        <route edges="edgeOutLeft edgeInBottom"/>
    </vehicle>
    <vehicle id="92" type="car" depart="92.00">
        <route edges="edgeOutLeft edgeInRight"/>
    </vehicle>
    <vehicle id="93" type="car" depart="93.00">
        <route edges="edgeOutTop edgeInBottom"/>
    </vehicle>
    <vehicle id="94" type="bus" depart="94.00">
        <route edges="edgeOutLeft edgeInRight"/>
    </vehicle>
    <vehicle id="95" type="car" depart="95.00">
        <route edges="edgeOutRight edgeInTop"/>
    </vehicle>
    <vehicle id="96" type="car" depart="96.00">
        <route edges="edgeOutLeft edgeInBottom"/>
    </vehicle>
    <vehicle id="97" type="bike" depart="97.00">
        <route edges="edgeOutBottom edgeInTop"/>
    </vehicle>
    <vehicle id="98" type="bike" depart="98.00">
        <route edges="edgeOutBottom edgeInRight"/>
    </vehicle>
    <vehicle id="99" type="bus" depart="99.00">
        <route edges="edgeOutLeft edgeInBottom"/>
    </vehicle>
    <vehicle id="100" type="bus" depart="100.00">
        <route edges="edgeOutBottom edgeInTop"/>
    </vehicle>
    <vehicle id="101" type="bike" depart="101.00">
        <route edges="edgeOutRight edgeInTop"/>
    </vehicle>
    <vehicle id="102" type="bike" depart="102.00">
        <route edges="edgeOutLeft edgeInTop"/>
    </vehicle>
    <vehicle id="103" type="car" depart="103.00">
        <route edges="edgeOutTop edgeInLeft"/>
    </vehicle>
    <vehicle id="104" type="bike" depart="104.00">
        <route edges="edgeOutRight edgeInBottom"/>
    </vehicle>
    <vehicle id="105" type="bus" depart="105.00">
        <route edges="edgeOutBottom edgeInRight"/>
    </vehicle>
    <vehicle id="106" type="bike" depart="106.00">
        <route edges="edgeOutRight edgeInTop"/>
    </vehicle>
    <vehicle id="107" type="bike" depart="107.00">
        <route edges="edgeOutTop edgeInLeft"/>
    </vehicle>
    <vehicle id="108" type="bus" depart="108.00">
        <route edges="edgeOutTop edgeInRight"/>
    </vehicle>
    <vehicle id="109" type="car" depart="109.00">
        <route edges="edgeOutRight edgeInTop"/>
    </vehicle>
    <vehicle id="110" type="bus" depart="110.00">
        <route edges="edgeOutRight edgeInBottom"/>
    </vehicle>
    <vehicle id="111" type="bus" depart="111.00">
        <route edges="edgeOutBottom edgeInTop"/>
    </vehicle>
    <vehicle id="112" type="bike" depart="112.00">
        <route edges="edgeOutRight edgeInLeft"/>
    </vehicle>
    <vehicle id="113" type="bus" depart="113.00">
        <route edges="edgeOutTop edgeInBottom"/>
    </vehicle>
    <vehicle id="114" type="bus" depart="114.00">
        <route edges="edgeOutLeft edgeInBottom"/>
    </vehicle>
    <vehicle id="115" type="bike" depart="115.00">
        <route edges="edgeOutBottom edgeInRight"/>
    </vehicle>
    <vehicle id="116" type="car" depart="116.00">
        <route edges="edgeOutLeft edgeInRight"/>
    </vehicle>
    <vehicle id="117" type="bus" depart="117.00">
        <route edges="edgeOutRight edgeInLeft"/>
    </vehicle>
    <vehicle id="118" type="car" depart="118.00">
        <route edges="edgeOutRight edgeInBottom"/>
    </vehicle>
    <vehicle id="119" type="bus" depart="119.00">
        <route edges="edgeOutLeft edgeInRight"/>
    </vehicle>
    <vehicle id="120" type="bus" depart="120.00">
        <route edges="edgeOutRight edgeInLeft"/>
    </vehicle>
    <vehicle id="121" type="bus" depart="121.00">
        <route edges="edgeOutTop edgeInRight"/>
    </vehicle>
    <vehicle id="122" type="bike" depart="122.00">
        <route edges="edgeOutRight edgeInTop"/>
    </vehicle>
    <vehicle id="123" type="bike" depart="123.00">
        <route edges="edgeOutRight edgeInLeft"/>
    </vehicle>
    <vehicle id="124" type="car" depart="124.00">
        <route edges="edgeOutBottom edgeInRight"/>
    </vehicle>
    <vehicle id="125" type="bike" depart="125.00">
        <route edges="edgeOutTop edgeInBottom"/>
    </vehicle>
    <vehicle id="126" type="bus" depart="126.00">
        <route edges="edgeOutBottom edgeInTop"/>
    </vehicle>
    <vehicle id="127" type="bike" depart="127.00">
        <route edges="edgeOutBottom edgeInTop"/>
    </vehicle>
    <vehicle id="128" type="bike" depart="128.00">
        <route edges="edgeOutTop edgeInBottom"/>
    </vehicle>
    <vehicle id="129" type="bus" depart="129.00">
        <route edges="edgeOutTop edgeInRight"/>
    </vehicle>
    <vehicle id="130" type="bus" depart="130.00">
        <route edges="edgeOutTop edgeInLeft"/>
    </vehicle>
    <vehicle id="131" type="car" depart="131.00">
        <route edges="edgeOutRight edgeInLeft"/>
    </vehicle>
    <vehicle id="132" type="car" depart="132.00">
        <route edges="edgeOutRight edgeInBottom"/>
    </vehicle>
    <vehicle id="133" type="car" depart="133.00">
        <route edges="edgeOutBottom edgeInLeft"/>
    </vehicle>
    <vehicle id="134" type="bike" depart="134.00">
        <route edges="edgeOutTop edgeInBottom"/>
    </vehicle>
    <vehicle id="135" type="car" depart="135.00">
        <route edges="edgeOutRight edgeInTop"/>
    </vehicle>
    <vehicle id="136" type="car" depart="136.00">
        <route edges="edgeOutRight edgeInLeft"/>
    </vehicle>
    <vehicle id="137" type="bike" depart="137.00">
        <route edges="edgeOutLeft edgeInRight"/>
    </vehicle>
    <vehicle id="138" type="bus" depart="138.00">
        <route edges="edgeOutLeft edgeInTop"/>
    </vehicle>
    <vehicle id="139" type="bike" depart="139.00">
        <route edges="edgeOutBottom edgeInRight"/>
    </vehicle>
    <vehicle id="140" type="bike" depart="140.00">
        <route edges="edgeOutBottom edgeInLeft"/>
    </vehicle>
    <vehicle id="141" type="bus" depart="141.00">
        <route edges="edgeOutLeft edgeInBottom"/>
    </vehicle>
    <vehicle id="142" type="bike" depart="142.00">
        <route edges="edgeOutTop edgeInBottom"/>
    </vehicle>
    <vehicle id="143" type="car" depart="143.00">
        <route edges="edgeOutLeft edgeInTop"/>
    </vehicle>
    <vehicle id="144" type="bike" depart="144.00">
        <route edges="edgeOutRight edgeInBottom"/>
    </vehicle>
    <vehicle id="145" type="car" depart="145.00">
        <route edges="edgeOutRight edgeInBottom"/>
    </vehicle>
    <vehicle id="146" type="bike" depart="146.00">
        <route edges="edgeOutLeft edgeInRight"/>
    </vehicle>
    <vehicle id="147" type="car" depart="147.00">
        <route edges="edgeOutBottom edgeInTop"/>
    </vehicle>
    <vehicle id="148" type="car" depart="148.00">
        <route edges="edgeOutTop edgeInBottom"/>
    </vehicle>
    <vehicle id="149" type="car" depart="149.00">
        <route edges="edgeOutRight edgeInBottom"/>
    </vehicle>
    <vehicle id="150" type="car" depart="150.00">
        <route edges="edgeOutTop edgeInRight"/>
    </vehicle>
    <vehicle id="151" type="bus" depart="151.00">
        <route edges="edgeOutBottom edgeInLeft"/>
    </vehicle>
    <vehicle id="152" type="bus" depart="152.00">
        <route edges="edgeOutRight edgeInBottom"/>
    </vehicle>
    <vehicle id="153" type="bike" depart="153.00">
        <route edges="edgeOutLeft edgeInTop"/>
    </vehicle>
    <vehicle id="154" type="bike" depart="154.00">
        <route edges="edgeOutBottom edgeInTop"/>
    </vehicle>
    <vehicle id="155" type="bike" depart="155.00">
        <route edges="edgeOutTop edgeInRight"/>
    </vehicle>
    <vehicle id="156" type="car" depart="156.00">
        <route edges="edgeOutLeft edgeInTop"/>
    </vehicle>
    <vehicle id="157" type="car" depart="157.00">
        <route edges="edgeOutLeft edgeInRight"/>
    </vehicle>
    <vehicle id="158" type="car" depart="158.00">
        <route edges="edgeOutBottom edgeInRight"/>
    </vehicle>
    <vehicle id="159" type="car" depart="159.00">
        <route edges="edgeOutLeft edgeInTop"/>
    </vehicle>
    <vehicle id="160" type="bike" depart="160.00">
        <route edges="edgeOutLeft edgeInRight"/>
    </vehicle>
    <vehicle id="161" type="car" depart="161.00">
        <route edges="edgeOutLeft edgeInTop"/>
    </vehicle>
    <vehicle id="162" type="car" depart="162.00">
        <route edges="edgeOutLeft edgeInTop"/>
    </vehicle>
    <vehicle id="163" type="bus" depart="163.00">
        <route edges="edgeOutLeft edgeInTop"/>
    </vehicle>
    <vehicle id="164" type="bike" depart="164.00">
        <route edges="edgeOutBottom edgeInLeft"/>
    </vehicle>
    <vehicle id="165" type="car" depart="165.00">
        <route edges="edgeOutRight edgeInLeft"/>
    </vehicle>
    <vehicle id="166" type="bike" depart="166.00">
        <route edges="edgeOutBottom edgeInTop"/>
    </vehicle>
    <vehicle id="167" type="bus" depart="167.00">
        <route edges="edgeOutTop edgeInLeft"/>
    </vehicle>
    <vehicle id="168" type="bike" depart="168.00">
        <route edges="edgeOutTop edgeInRight"/>
    </vehicle>
    <vehicle id="169" type="bike" depart="169.00">
        <route edges="edgeOutTop edgeInLeft"/>
    </vehicle>
    <vehicle id="170" type="bus" depart="170.00">
        <route edges="edgeOutLeft edgeInRight"/>
    </vehicle>
    <vehicle id="171" type="bus" depart="171.00">
        <route edges="edgeOutTop edgeInRight"/>
    </vehicle>
    <vehicle id="172" type="bike" depart="172.00">
        <route edges="edgeOutTop edgeInBottom"/>
    </vehicle>
    <vehicle id="173" type="car" depart="173.00">
        <route edges="edgeOutRight edgeInTop"/>
    </vehicle>
    <vehicle id="174" type="bike" depart="174.00">
        <route edges="edgeOutBottom edgeInRight"/>
    </vehicle>
    <vehicle id="175" type="bike" depart="175.00">
        <route edges="edgeOutTop edgeInRight"/>
    </vehicle>
    <vehicle id="176" type="car" depart="176.00">
        <route edges="edgeOutBottom edgeInTop"/>
    </vehicle>
    <vehicle id="177" type="bike" depart="177.00">
        <route edges="edgeOutLeft edgeInBottom"/>
    </vehicle>
    <vehicle id="178" type="bike" depart="178.00">
        <route edges="edgeOutRight edgeInLeft"/>
    </vehicle>
    <vehicle id="179" type="bike" depart="179.00">
        <route edges="edgeOutLeft edgeInBottom"/>
    </vehicle>
    <vehicle id="180" type="car" depart="180.00">
        <route edges="edgeOutLeft edgeInBottom"/>
    </vehicle>
    <vehicle id="181" type="car" depart="181.00">
        <route edges="edgeOutBottom edgeInRight"/>
    </vehicle>
    <vehicle id="182" type="bus" depart="182.00">
        <route edges="edgeOutBottom edgeInLeft"/>
    </vehicle>
    <vehicle id="183" type="bus" depart="183.00">
        <route edges="edgeOutLeft edgeInBottom"/>
    </vehicle>
    <vehicle id="184" type="bus" depart="184.00">
        <route edges="edgeOutRight edgeInLeft"/>
    </vehicle>
    <vehicle id="185" type="bike" depart="185.00">
        <route edges="edgeOutLeft edgeInRight"/>
    </vehicle>
    <vehicle id="186" type="car" depart="186.00">
        <route edges="edgeOutTop edgeInLeft"/>
    </vehicle>
    <vehicle id="187" type="bike" depart="187.00">
        <route edges="edgeOutTop edgeInLeft"/>
    </vehicle>
    <vehicle id="188" type="bike" depart="188.00">
        <route edges="edgeOutLeft edgeInBottom"/>
    </vehicle>
    <vehicle id="189" type="car" depart="189.00">
        <route edges="edgeOutBottom edgeInTop"/>
    </vehicle>
    <vehicle id="190" type="bike" depart="190.00">
        <route edges="edgeOutRight edgeInLeft"/>
    </vehicle>
    <vehicle id="191" type="bus" depart="191.00">
        <route edges="edgeOutLeft edgeInBottom"/>
    </vehicle>
    <vehicle id="192" type="bike" depart="192.00">
        <route edges="edgeOutRight edgeInLeft"/>
    </vehicle>
    <vehicle id="193" type="bike" depart="193.00">
        <route edges="edgeOutLeft edgeInRight"/>
    </vehicle>
    <vehicle id="194" type="bus" depart="194.00">
        <route edges="edgeOutRight edgeInBottom"/>
    </vehicle>
    <vehicle id="195" type="bike" depart="195.00">
        <route edges="edgeOutRight edgeInLeft"/>
    </vehicle>
    <vehicle id="196" type="car" depart="196.00">
        <route edges="edgeOutRight edgeInTop"/>
    </vehicle>
    <vehicle id="197" type="car" depart="197.00">
        <route edges="edgeOutTop edgeInLeft"/>
    </vehicle>
    <vehicle id="198" type="car" depart="198.00">
        <route edges="edgeOutRight edgeInLeft"/>
    </vehicle>
    <vehicle id="199" type="car" depart="199.00">
        <route edges="edgeOutTop edgeInLeft"/>
    </vehicle>
</routes>
