<routes xmlns:xsi="http://www.w3.org/2001/XMLSchema-instance" xsi:noNamespaceSchemaLocation="http://sumo.dlr.de/xsd/routes_file.xsd">
    <vehicle id="0" type="bus" depart="5.056293733565359">
        <route edges="edgeOutLeft edgeInTop" />
    </vehicle>
    <vehicle id="1" type="bike" depart="11.749540821430893">
        <route edges="edgeOutLeft edgeInBottom" />
    </vehicle>
    <vehicle id="2" type="bike" depart="17.86817524830895">
        <route edges="edgeOutLeft edgeInRight" />
    </vehicle>
    <vehicle id="3" type="car" depart="25.549721578771884">
        <route edges="edgeOutLeft edgeInRight" />
    </vehicle>
    <vehicle id="4" type="bus" depart="31.784466232512848">
        <route edges="edgeOutTop edgeInBottom" />
    </vehicle>
    <vehicle id="5" type="car" depart="39.851544752183784">
        <route edges="edgeOutTop edgeInBottom" />
    </vehicle>
    <vehicle id="6" type="bus" depart="45.988249178694474">
        <route edges="edgeOutLeft edgeInTop" />
    </vehicle>
    <vehicle id="7" type="bike" depart="52.10924135136144">
        <route edges="edgeOutLeft edgeInBottom" />
    </vehicle>
    <vehicle id="8" type="bike" depart="61.88958280650512">
        <route edges="edgeOutTop edgeInLeft" />
    </vehicle>
    <vehicle id="9" type="car" depart="68.9839986133148">
        <route edges="edgeOutBottom edgeInLeft" />
    </vehicle>
    <vehicle id="10" type="bus" depart="76.4680994280209">
        <route edges="edgeOutLeft edgeInTop" />
    </vehicle>
    <vehicle id="11" type="car" depart="84.88594712190606">
        <route edges="edgeOutRight edgeInBottom" />
    </vehicle>
    <vehicle id="12" type="car" depart="92.6583397525488">
        <route edges="edgeOutLeft edgeInRight" />
    </vehicle>
    <vehicle id="13" type="bus" depart="101.24254230005278">
        <route edges="edgeOutLeft edgeInBottom" />
    </vehicle>
    <vehicle id="14" type="bus" depart="106.69777762513897">
        <route edges="edgeOutLeft edgeInRight" />
    </vehicle>
    <vehicle id="15" type="car" depart="116.58553020864855">
        <route edges="edgeOutRight edgeInBottom" />
    </vehicle>
    <vehicle id="16" type="bus" depart="122.42844948539316">
        <route edges="edgeOutLeft edgeInRight" />
    </vehicle>
    <vehicle id="17" type="bus" depart="128.20565971637498">
        <route edges="edgeOutRight edgeInTop" />
    </vehicle>
    <vehicle id="18" type="car" depart="134.22029014874676">
        <route edges="edgeOutTop edgeInRight" />
    </vehicle>
    <vehicle id="19" type="car" depart="143.22347979858736">
        <route edges="edgeOutTop edgeInRight" />
    </vehicle>
    <vehicle id="20" type="bus" depart="153.07770369172445">
        <route edges="edgeOutTop edgeInRight" />
    </vehicle>
    <vehicle id="21" type="car" depart="158.31764705114867">
        <route edges="edgeOutTop edgeInRight" />
    </vehicle>
    <vehicle id="22" type="car" depart="167.8993617125155">
        <route edges="edgeOutRight edgeInBottom" />
    </vehicle>
    <vehicle id="23" type="car" depart="174.46758243398372">
        <route edges="edgeOutRight edgeInLeft" />
    </vehicle>
    <vehicle id="24" type="bike" depart="182.84919307508977">
        <route edges="edgeOutTop edgeInBottom" />
    </vehicle>
    <vehicle id="25" type="bus" depart="191.05876679563676">
        <route edges="edgeOutTop edgeInBottom" />
    </vehicle>
    <vehicle id="26" type="car" depart="198.94251857136507">
        <route edges="edgeOutBottom edgeInRight" />
    </vehicle>
    <vehicle id="27" type="bike" depart="206.13961107776873">
        <route edges="edgeOutTop edgeInLeft" />
    </vehicle>
    <vehicle id="28" type="bike" depart="214.14440963591193">
        <route edges="edgeOutLeft edgeInRight" />
    </vehicle>
    <vehicle id="29" type="car" depart="221.13489600682232">
        <route edges="edgeOutRight edgeInTop" />
    </vehicle>
    <vehicle id="30" type="car" depart="226.37361105597537">
        <route edges="edgeOutTop edgeInBottom" />
    </vehicle>
    <vehicle id="31" type="car" depart="235.24363076535775">
        <route edges="edgeOutRight edgeInBottom" />
    </vehicle>
    <vehicle id="32" type="bike" depart="242.11910165958759">
        <route edges="edgeOutLeft edgeInTop" />
    </vehicle>
    <vehicle id="33" type="bus" depart="250.21715302973098">
        <route edges="edgeOutBottom edgeInTop" />
    </vehicle>
    <vehicle id="34" type="car" depart="259.40749292626174">
        <route edges="edgeOutRight edgeInLeft" />
    </vehicle>
    <vehicle id="35" type="car" depart="264.83572092779536">
        <route edges="edgeOutRight edgeInBottom" />
    </vehicle>
    <vehicle id="36" type="car" depart="271.1934745018312">
        <route edges="edgeOutRight edgeInTop" />
    </vehicle>
    <vehicle id="37" type="car" depart="276.3415374562363">
        <route edges="edgeOutLeft edgeInBottom" />
    </vehicle>
    <vehicle id="38" type="car" depart="286.05021078668443">
        <route edges="edgeOutBottom edgeInTop" />
    </vehicle>
    <vehicle id="39" type="car" depart="291.33882609598385">
        <route edges="edgeOutRight edgeInBottom" />
    </vehicle>
    <vehicle id="40" type="car" depart="298.6841971975251">
        <route edges="edgeOutBottom edgeInRight" />
    </vehicle>
    <vehicle id="41" type="bike" depart="308.5457717254513">
        <route edges="edgeOutBottom edgeInRight" />
    </vehicle>
    <vehicle id="42" type="bike" depart="318.0685915180433">
        <route edges="edgeOutRight edgeInLeft" />
    </vehicle>
    <vehicle id="43" type="bike" depart="324.0542881117561">
        <route edges="edgeOutLeft edgeInRight" />
    </vehicle>
    <vehicle id="44" type="car" depart="329.59328610710384">
        <route edges="edgeOutLeft edgeInBottom" />
    </vehicle>
    <vehicle id="45" type="bus" depart="338.6786065476636">
        <route edges="edgeOutTop edgeInBottom" />
    </vehicle>
    <vehicle id="46" type="car" depart="344.8297360658999">
        <route edges="edgeOutLeft edgeInRight" />
    </vehicle>
    <vehicle id="47" type="bike" depart="350.6689125248244">
        <route edges="edgeOutLeft edgeInRight" />
    </vehicle>
    <vehicle id="48" type="car" depart="356.33642221306866">
        <route edges="edgeOutBottom edgeInTop" />
    </vehicle>
    <vehicle id="49" type="car" depart="364.5105798144278">
        <route edges="edgeOutTop edgeInLeft" />
    </vehicle>
    <vehicle id="50" type="bike" depart="373.5670535500389">
        <route edges="edgeOutBottom edgeInTop" />
    </vehicle>
    <vehicle id="51" type="car" depart="383.4518210662552">
        <route edges="edgeOutTop edgeInLeft" />
    </vehicle>
    <vehicle id="52" type="car" depart="392.7231775494949">
        <route edges="edgeOutRight edgeInLeft" />
    </vehicle>
    <vehicle id="53" type="bus" depart="399.95640040749106">
        <route edges="edgeOutLeft edgeInRight" />
    </vehicle>
    <vehicle id="54" type="car" depart="409.2611297459668">
        <route edges="edgeOutTop edgeInLeft" />
    </vehicle>
    <vehicle id="55" type="car" depart="418.3785820547238">
        <route edges="edgeOutRight edgeInBottom" />
    </vehicle>
    <vehicle id="56" type="bike" depart="426.1188746772951">
        <route edges="edgeOutTop edgeInLeft" />
    </vehicle>
    <vehicle id="57" type="bike" depart="434.57286699290097">
        <route edges="edgeOutLeft edgeInBottom" />
    </vehicle>
    <vehicle id="58" type="bus" depart="440.811654908459">
        <route edges="edgeOutBottom edgeInLeft" />
    </vehicle>
    <vehicle id="59" type="car" depart="450.61785965719514">
        <route edges="edgeOutLeft edgeInBottom" />
    </vehicle>
    <vehicle id="60" type="car" depart="455.64096487408733">
        <route edges="edgeOutLeft edgeInRight" />
    </vehicle>
    <vehicle id="61" type="bike" depart="463.66653613180137">
        <route edges="edgeOutRight edgeInLeft" />
    </vehicle>
    <vehicle id="62" type="bike" depart="471.73514181375407">
        <route edges="edgeOutRight edgeInBottom" />
    </vehicle>
    <vehicle id="63" type="car" depart="478.0416329418885">
        <route edges="edgeOutBottom edgeInTop" />
    </vehicle>
    <vehicle id="64" type="bus" depart="485.09762031368814">
        <route edges="edgeOutLeft edgeInRight" />
    </vehicle>
    <vehicle id="65" type="car" depart="492.45714375613267">
        <route edges="edgeOutTop edgeInBottom" />
    </vehicle>
    <vehicle id="66" type="bus" depart="497.91134829924727">
        <route edges="edgeOutBottom edgeInTop" />
    </vehicle>
    <vehicle id="67" type="car" depart="503.66397458286275">
        <route edges="edgeOutLeft edgeInBottom" />
    </vehicle>
    <vehicle id="68" type="bike" depart="513.115789927925">
        <route edges="edgeOutTop edgeInBottom" />
    </vehicle>
    <vehicle id="69" type="bike" depart="521.3674627390978">
        <route edges="edgeOutBottom edgeInLeft" />
    </vehicle>
    <vehicle id="70" type="car" depart="527.9335629739157">
        <route edges="edgeOutLeft edgeInTop" />
    </vehicle>
    <vehicle id="71" type="bus" depart="535.0937123368802">
        <route edges="edgeOutRight edgeInTop" />
    </vehicle>
    <vehicle id="72" type="bike" depart="540.3902149626695">
        <route edges="edgeOutTop edgeInLeft" />
    </vehicle>
    <vehicle id="73" type="bike" depart="549.8896681058613">
        <route edges="edgeOutLeft edgeInRight" />
    </vehicle>
    <vehicle id="74" type="car" depart="559.4805788415965">
        <route edges="edgeOutTop edgeInBottom" />
    </vehicle>
    <vehicle id="75" type="bike" depart="566.0652044266925">
        <route edges="edgeOutLeft edgeInTop" />
    </vehicle>
    <vehicle id="76" type="bike" depart="573.6452246190407">
        <route edges="edgeOutRight edgeInLeft" />
    </vehicle>
    <vehicle id="77" type="bus" depart="583.422474894415">
        <route edges="edgeOutTop edgeInBottom" />
    </vehicle>
    <vehicle id="78" type="bike" depart="590.6757018573483">
        <route edges="edgeOutLeft edgeInRight" />
    </vehicle>
    <vehicle id="79" type="bus" depart="595.7356275618903">
        <route edges="edgeOutBottom edgeInLeft" />
    </vehicle>
    <vehicle id="80" type="bus" depart="602.3034076396536">
        <route edges="edgeOutRight edgeInTop" />
    </vehicle>
    <vehicle id="81" type="bus" depart="609.208477807045">
        <route edges="edgeOutLeft edgeInTop" />
    </vehicle>
    <vehicle id="82" type="car" depart="615.7798797154752">
        <route edges="edgeOutLeft edgeInRight" />
    </vehicle>
    <vehicle id="83" type="car" depart="621.7368441486815">
        <route edges="edgeOutBottom edgeInRight" />
    </vehicle>
    <vehicle id="84" type="car" depart="630.2851805913666">
        <route edges="edgeOutLeft edgeInRight" />
    </vehicle>
    <vehicle id="85" type="car" depart="638.1414582411967">
        <route edges="edgeOutLeft edgeInTop" />
    </vehicle>
    <vehicle id="86" type="car" depart="644.5704818443396">
        <route edges="edgeOutRight edgeInBottom" />
    </vehicle>
    <vehicle id="87" type="bus" depart="650.8086072432131">
        <route edges="edgeOutLeft edgeInRight" />
    </vehicle>
    <vehicle id="88" type="bike" depart="658.7788152721278">
        <route edges="edgeOutLeft edgeInBottom" />
    </vehicle>
    <vehicle id="89" type="bike" depart="665.4732199005667">
        <route edges="edgeOutLeft edgeInTop" />
    </vehicle>
    <vehicle id="90" type="car" depart="673.7425619021384">
        <route edges="edgeOutRight edgeInBottom" />
    </vehicle>
    <vehicle id="91" type="car" depart="683.5440004541176">
        <route edges="edgeOutTop edgeInLeft" />
    </vehicle>
    <vehicle id="92" type="bike" depart="688.6590297807929">
        <route edges="edgeOutLeft edgeInBottom" />
    </vehicle>
    <vehicle id="93" type="bus" depart="697.1484286251604">
        <route edges="edgeOutLeft edgeInBottom" />
    </vehicle>
    <vehicle id="94" type="bike" depart="704.1008405102118">
        <route edges="edgeOutTop edgeInRight" />
    </vehicle>
    <vehicle id="95" type="car" depart="711.1935380480656">
        <route edges="edgeOutRight edgeInLeft" />
    </vehicle>
    <vehicle id="96" type="bike" depart="721.1088666310833">
        <route edges="edgeOutBottom edgeInRight" />
    </vehicle>
    <vehicle id="97" type="car" depart="731.0606250794922">
        <route edges="edgeOutBottom edgeInRight" />
    </vehicle>
    <vehicle id="98" type="bike" depart="737.3245886258846">
        <route edges="edgeOutTop edgeInBottom" />
    </vehicle>
    <vehicle id="99" type="car" depart="743.8657104584033">
        <route edges="edgeOutLeft edgeInTop" />
    </vehicle>
    <vehicle id="100" type="car" depart="751.8773795327186">
        <route edges="edgeOutBottom edgeInTop" />
    </vehicle>
    <vehicle id="101" type="car" depart="760.2267501088896">
        <route edges="edgeOutRight edgeInTop" />
    </vehicle>
    <vehicle id="102" type="bus" depart="766.5593089478019">
        <route edges="edgeOutRight edgeInTop" />
    </vehicle>
    <vehicle id="103" type="car" depart="771.6160457327946">
        <route edges="edgeOutBottom edgeInRight" />
    </vehicle>
    <vehicle id="104" type="bike" depart="777.9687415905836">
        <route edges="edgeOutRight edgeInTop" />
    </vehicle>
    <vehicle id="105" type="bus" depart="787.3830592451396">
        <route edges="edgeOutRight edgeInLeft" />
    </vehicle>
    <vehicle id="106" type="bus" depart="794.2409456235503">
        <route edges="edgeOutRight edgeInBottom" />
    </vehicle>
    <vehicle id="107" type="car" depart="802.5812094402692">
        <route edges="edgeOutRight edgeInLeft" />
    </vehicle>
    <vehicle id="108" type="bike" depart="808.8542179980393">
        <route edges="edgeOutLeft edgeInTop" />
    </vehicle>
    <vehicle id="109" type="bus" depart="818.0827584338401">
        <route edges="edgeOutRight edgeInBottom" />
    </vehicle>
    <vehicle id="110" type="bike" depart="826.4064876576032">
        <route edges="edgeOutBottom edgeInLeft" />
    </vehicle>
    <vehicle id="111" type="bus" depart="834.9358036973908">
        <route edges="edgeOutBottom edgeInLeft" />
    </vehicle>
    <vehicle id="112" type="bus" depart="843.1173253216753">
        <route edges="edgeOutLeft edgeInBottom" />
    </vehicle>
    <vehicle id="113" type="car" depart="848.1990391635272">
        <route edges="edgeOutRight edgeInLeft" />
    </vehicle>
    <vehicle id="114" type="car" depart="856.7238069221015">
        <route edges="edgeOutLeft edgeInBottom" />
    </vehicle>
    <vehicle id="115" type="bike" depart="863.5055187335004">
        <route edges="edgeOutTop edgeInLeft" />
    </vehicle>
    <vehicle id="116" type="bike" depart="871.9325934590787">
        <route edges="edgeOutBottom edgeInTop" />
    </vehicle>
    <vehicle id="117" type="bike" depart="877.1657606135147">
        <route edges="edgeOutRight edgeInLeft" />
    </vehicle>
    <vehicle id="118" type="bus" depart="887.0496298769766">
        <route edges="edgeOutTop edgeInLeft" />
    </vehicle>
    <vehicle id="119" type="bus" depart="896.1941253798441">
        <route edges="edgeOutRight edgeInBottom" />
    </vehicle>
    <vehicle id="120" type="bike" depart="902.4256065101514">
        <route edges="edgeOutRight edgeInLeft" />
    </vehicle>
    <vehicle id="121" type="car" depart="908.6944289051129">
        <route edges="edgeOutTop edgeInRight" />
    </vehicle>
    <vehicle id="122" type="car" depart="915.9844481516606">
        <route edges="edgeOutRight edgeInTop" />
    </vehicle>
    <vehicle id="123" type="bike" depart="922.8622924021684">
        <route edges="edgeOutTop edgeInRight" />
    </vehicle>
    <vehicle id="124" type="car" depart="932.5761155637507">
        <route edges="edgeOutTop edgeInRight" />
    </vehicle>
    <vehicle id="125" type="bus" depart="938.916633847421">
        <route edges="edgeOutRight edgeInLeft" />
    </vehicle>
    <vehicle id="126" type="bus" depart="945.189704683988">
        <route edges="edgeOutRight edgeInTop" />
    </vehicle>
    <vehicle id="127" type="bus" depart="951.5015093865462">
        <route edges="edgeOutTop edgeInRight" />
    </vehicle>
    <vehicle id="128" type="bus" depart="958.995140251596">
        <route edges="edgeOutTop edgeInRight" />
    </vehicle>
    <vehicle id="129" type="bike" depart="966.6169706233836">
        <route edges="edgeOutTop edgeInLeft" />
    </vehicle>
    <vehicle id="130" type="bus" depart="973.4529947918095">
        <route edges="edgeOutLeft edgeInTop" />
    </vehicle>
    <vehicle id="131" type="bike" depart="981.4584703075218">
        <route edges="edgeOutLeft edgeInRight" />
    </vehicle>
    <vehicle id="132" type="car" depart="990.9810064721555">
        <route edges="edgeOutLeft edgeInRight" />
    </vehicle>
    <vehicle id="133" type="bus" depart="996.1847301741034">
        <route edges="edgeOutLeft edgeInRight" />
    </vehicle>
    <vehicle id="134" type="car" depart="1005.2824333964346">
        <route edges="edgeOutTop edgeInRight" />
    </vehicle>
    <vehicle id="135" type="car" depart="1012.9193139916118">
        <route edges="edgeOutTop edgeInRight" />
    </vehicle>
    <vehicle id="136" type="bus" depart="1021.3357365356388">
        <route edges="edgeOutLeft edgeInTop" />
    </vehicle>
    <vehicle id="137" type="bike" depart="1030.764734942545">
        <route edges="edgeOutRight edgeInLeft" />
    </vehicle>
    <vehicle id="138" type="bus" depart="1040.4596734221311">
        <route edges="edgeOutRight edgeInLeft" />
    </vehicle>
    <vehicle id="139" type="bike" depart="1049.7363135230105">
        <route edges="edgeOutBottom edgeInTop" />
    </vehicle>
    <vehicle id="140" type="car" depart="1055.042506555722">
        <route edges="edgeOutRight edgeInTop" />
    </vehicle>
    <vehicle id="141" type="bike" depart="1062.830300881686">
        <route edges="edgeOutTop edgeInBottom" />
    </vehicle>
    <vehicle id="142" type="bike" depart="1071.9117961311313">
        <route edges="edgeOutLeft edgeInRight" />
    </vehicle>
    <vehicle id="143" type="car" depart="1080.0723602490395">
        <route edges="edgeOutBottom edgeInTop" />
    </vehicle>
    <vehicle id="144" type="car" depart="1088.0161262586068">
        <route edges="edgeOutLeft edgeInTop" />
    </vehicle>
    <vehicle id="145" type="bike" depart="1096.1269221927391">
        <route edges="edgeOutRight edgeInLeft" />
    </vehicle>
    <vehicle id="146" type="car" depart="1104.0692907496273">
        <route edges="edgeOutRight edgeInLeft" />
    </vehicle>
    <vehicle id="147" type="bus" depart="1110.5508124086168">
        <route edges="edgeOutTop edgeInRight" />
    </vehicle>
    <vehicle id="148" type="bike" depart="1120.180974811518">
        <route edges="edgeOutRight edgeInLeft" />
    </vehicle>
    <vehicle id="149" type="bike" depart="1127.420021597574">
        <route edges="edgeOutLeft edgeInRight" />
    </vehicle>
    <vehicle id="150" type="car" depart="1133.31648137184">
        <route edges="edgeOutRight edgeInTop" />
    </vehicle>
    <vehicle id="151" type="car" depart="1141.167332140456">
        <route edges="edgeOutTop edgeInRight" />
    </vehicle>
    <vehicle id="152" type="car" depart="1149.8700702777417">
        <route edges="edgeOutTop edgeInLeft" />
    </vehicle>
    <vehicle id="153" type="bike" depart="1156.3728053413995">
        <route edges="edgeOutTop edgeInRight" />
    </vehicle>
    <vehicle id="154" type="bike" depart="1162.304920425544">
        <route edges="edgeOutRight edgeInTop" />
    </vehicle>
    <vehicle id="155" type="bike" depart="1168.3430490738">
        <route edges="edgeOutTop edgeInBottom" />
    </vehicle>
    <vehicle id="156" type="bike" depart="1174.8149087871666">
        <route edges="edgeOutLeft edgeInRight" />
    </vehicle>
    <vehicle id="157" type="car" depart="1180.211899683178">
        <route edges="edgeOutTop edgeInRight" />
    </vehicle>
    <vehicle id="158" type="bus" depart="1189.7790239766787">
        <route edges="edgeOutTop edgeInBottom" />
    </vehicle>
    <vehicle id="159" type="bus" depart="1196.057163547794">
        <route edges="edgeOutLeft edgeInTop" />
    </vehicle>
    <vehicle id="160" type="car" depart="1205.8935973267107">
        <route edges="edgeOutTop edgeInLeft" />
    </vehicle>
    <vehicle id="161" type="bus" depart="1213.7602189762345">
        <route edges="edgeOutTop edgeInLeft" />
    </vehicle>
    <vehicle id="162" type="bike" depart="1219.2938245175114">
        <route edges="edgeOutRight edgeInLeft" />
    </vehicle>
    <vehicle id="163" type="car" depart="1225.2408292554717">
        <route edges="edgeOutLeft edgeInBottom" />
    </vehicle>
    <vehicle id="164" type="bike" depart="1233.3607034548593">
        <route edges="edgeOutBottom edgeInRight" />
    </vehicle>
    <vehicle id="165" type="car" depart="1241.797572659387">
        <route edges="edgeOutBottom edgeInRight" />
    </vehicle>
    <vehicle id="166" type="car" depart="1249.1204630664622">
        <route edges="edgeOutRight edgeInLeft" />
    </vehicle>
    <vehicle id="167" type="bike" depart="1257.1074755266407">
        <route edges="edgeOutTop edgeInRight" />
    </vehicle>
    <vehicle id="168" type="bus" depart="1265.056676659874">
        <route edges="edgeOutRight edgeInBottom" />
    </vehicle>
    <vehicle id="169" type="bus" depart="1273.565784187819">
        <route edges="edgeOutRight edgeInLeft" />
    </vehicle>
    <vehicle id="170" type="bike" depart="1278.689668018091">
        <route edges="edgeOutLeft edgeInRight" />
    </vehicle>
    <vehicle id="171" type="bike" depart="1287.1050909548874">
        <route edges="edgeOutRight edgeInBottom" />
    </vehicle>
    <vehicle id="172" type="car" depart="1293.5947019839987">
        <route edges="edgeOutLeft edgeInRight" />
    </vehicle>
    <vehicle id="173" type="car" depart="1303.2060023251152">
        <route edges="edgeOutBottom edgeInLeft" />
    </vehicle>
    <vehicle id="174" type="bus" depart="1313.0887263047173">
        <route edges="edgeOutLeft edgeInBottom" />
    </vehicle>
    <vehicle id="175" type="bus" depart="1318.5964962217167">
        <route edges="edgeOutBottom edgeInRight" />
    </vehicle>
    <vehicle id="176" type="bike" depart="1328.4575959240067">
        <route edges="edgeOutTop edgeInLeft" />
    </vehicle>
    <vehicle id="177" type="bus" depart="1335.2933698612692">
        <route edges="edgeOutTop edgeInBottom" />
    </vehicle>
    <vehicle id="178" type="bus" depart="1341.2390042205675">
        <route edges="edgeOutRight edgeInLeft" />
    </vehicle>
    <vehicle id="179" type="bus" depart="1346.7239526182586">
        <route edges="edgeOutBottom edgeInTop" />
    </vehicle>
    <vehicle id="180" type="car" depart="1354.3683337780972">
        <route edges="edgeOutTop edgeInLeft" />
    </vehicle>
    <vehicle id="181" type="car" depart="1363.6241559117477">
        <route edges="edgeOutTop edgeInBottom" />
    </vehicle>
    <vehicle id="182" type="bus" depart="1370.1381027157438">
        <route edges="edgeOutBottom edgeInTop" />
    </vehicle>
    <vehicle id="183" type="bus" depart="1375.65017071475">
        <route edges="edgeOutBottom edgeInRight" />
    </vehicle>
    <vehicle id="184" type="bike" depart="1383.8634613392433">
        <route edges="edgeOutRight edgeInLeft" />
    </vehicle>
    <vehicle id="185" type="bus" depart="1390.964387639939">
        <route edges="edgeOutBottom edgeInLeft" />
    </vehicle>
    <vehicle id="186" type="bike" depart="1397.357378029205">
        <route edges="edgeOutBottom edgeInTop" />
    </vehicle>
    <vehicle id="187" type="bike" depart="1406.7485923156953">
        <route edges="edgeOutBottom edgeInRight" />
    </vehicle>
    <vehicle id="188" type="bike" depart="1415.6041783750477">
        <route edges="edgeOutTop edgeInRight" />
    </vehicle>
    <vehicle id="189" type="car" depart="1421.0797298051637">
        <route edges="edgeOutLeft edgeInRight" />
    </vehicle>
    <vehicle id="190" type="bus" depart="1431.0391356752102">
        <route edges="edgeOutTop edgeInLeft" />
    </vehicle>
    <vehicle id="191" type="bike" depart="1440.5015997462722">
        <route edges="edgeOutTop edgeInBottom" />
    </vehicle>
    <vehicle id="192" type="car" depart="1450.0648403680273">
        <route edges="edgeOutRight edgeInTop" />
    </vehicle>
    <vehicle id="193" type="bike" depart="1457.227223844273">
        <route edges="edgeOutBottom edgeInRight" />
    </vehicle>
    <vehicle id="194" type="car" depart="1466.218042423397">
        <route edges="edgeOutTop edgeInLeft" />
    </vehicle>
    <vehicle id="195" type="bus" depart="1475.5497834416767">
        <route edges="edgeOutLeft edgeInTop" />
    </vehicle>
    <vehicle id="196" type="bus" depart="1484.8981980126514">
        <route edges="edgeOutTop edgeInLeft" />
    </vehicle>
    <vehicle id="197" type="bus" depart="1492.5722557676327">
        <route edges="edgeOutRight edgeInBottom" />
    </vehicle>
    <vehicle id="198" type="car" depart="1498.7000796301459">
        <route edges="edgeOutTop edgeInRight" />
    </vehicle>
    <vehicle id="199" type="car" depart="1506.0809080072179">
        <route edges="edgeOutTop edgeInRight" />
    </vehicle>
    <vehicle id="200" type="bike" depart="1515.3410659927795">
        <route edges="edgeOutRight edgeInBottom" />
    </vehicle>
    <vehicle id="201" type="bike" depart="1521.8328509895277">
        <route edges="edgeOutLeft edgeInTop" />
    </vehicle>
    <vehicle id="202" type="bike" depart="1528.539316806255">
        <route edges="edgeOutTop edgeInBottom" />
    </vehicle>
    <vehicle id="203" type="bike" depart="1536.192090364879">
        <route edges="edgeOutBottom edgeInLeft" />
    </vehicle>
    <vehicle id="204" type="bus" depart="1544.779168212365">
        <route edges="edgeOutRight edgeInTop" />
    </vehicle>
    <vehicle id="205" type="bike" depart="1554.276878744767">
        <route edges="edgeOutRight edgeInTop" />
    </vehicle>
    <vehicle id="206" type="car" depart="1560.5366111956223">
        <route edges="edgeOutRight edgeInBottom" />
    </vehicle>
    <vehicle id="207" type="bus" depart="1567.5451794333621">
        <route edges="edgeOutBottom edgeInLeft" />
    </vehicle>
    <vehicle id="208" type="bike" depart="1574.3374952139682">
        <route edges="edgeOutTop edgeInLeft" />
    </vehicle>
    <vehicle id="209" type="bike" depart="1579.5579636935738">
        <route edges="edgeOutLeft edgeInRight" />
    </vehicle>
    <vehicle id="210" type="bike" depart="1586.3317779384627">
        <route edges="edgeOutBottom edgeInTop" />
    </vehicle>
    <vehicle id="211" type="bike" depart="1592.849221795537">
        <route edges="edgeOutLeft edgeInRight" />
    </vehicle>
    <vehicle id="212" type="car" depart="1601.446181323527">
        <route edges="edgeOutLeft edgeInTop" />
    </vehicle>
    <vehicle id="213" type="bus" depart="1611.3256230776828">
        <route edges="edgeOutBottom edgeInLeft" />
    </vehicle>
    <vehicle id="214" type="bike" depart="1619.3559316214864">
        <route edges="edgeOutRight edgeInTop" />
    </vehicle>
    <vehicle id="215" type="car" depart="1624.7182102138158">
        <route edges="edgeOutBottom edgeInLeft" />
    </vehicle>
    <vehicle id="216" type="car" depart="1631.2141144506797">
        <route edges="edgeOutTop edgeInLeft" />
    </vehicle>
    <vehicle id="217" type="bus" depart="1639.1857629739482">
        <route edges="edgeOutRight edgeInLeft" />
    </vehicle>
    <vehicle id="218" type="bus" depart="1646.4644464349924">
        <route edges="edgeOutLeft edgeInTop" />
    </vehicle>
    <vehicle id="219" type="car" depart="1651.8948531753083">
        <route edges="edgeOutBottom edgeInTop" />
    </vehicle>
    <vehicle id="220" type="bus" depart="1659.0088580044492">
        <route edges="edgeOutRight edgeInLeft" />
    </vehicle>
    <vehicle id="221" type="bike" depart="1668.5998124517846">
        <route edges="edgeOutTop edgeInLeft" />
    </vehicle>
    <vehicle id="222" type="car" depart="1677.3714696907243">
        <route edges="edgeOutTop edgeInBottom" />
    </vehicle>
    <vehicle id="223" type="car" depart="1683.7593605988538">
        <route edges="edgeOutTop edgeInRight" />
    </vehicle>
    <vehicle id="224" type="bike" depart="1692.5039387833676">
        <route edges="edgeOutTop edgeInBottom" />
    </vehicle>
    <vehicle id="225" type="car" depart="1701.6161485089322">
        <route edges="edgeOutBottom edgeInLeft" />
    </vehicle>
    <vehicle id="226" type="bus" depart="1707.2233280297112">
        <route edges="edgeOutBottom edgeInRight" />
    </vehicle>
    <vehicle id="227" type="bike" depart="1714.4513472777244">
        <route edges="edgeOutLeft edgeInTop" />
    </vehicle>
    <vehicle id="228" type="bus" depart="1722.87754274442">
        <route edges="edgeOutRight edgeInBottom" />
    </vehicle>
    <vehicle id="229" type="bike" depart="1729.5407782016196">
        <route edges="edgeOutTop edgeInLeft" />
    </vehicle>
    <vehicle id="230" type="bus" depart="1739.2094591711293">
        <route edges="edgeOutRight edgeInBottom" />
    </vehicle>
    <vehicle id="231" type="car" depart="1745.8401726277873">
        <route edges="edgeOutLeft edgeInTop" />
    </vehicle>
    <vehicle id="232" type="car" depart="1755.563928301215">
        <route edges="edgeOutLeft edgeInRight" />
    </vehicle>
    <vehicle id="233" type="bus" depart="1762.295616103138">
        <route edges="edgeOutBottom edgeInTop" />
    </vehicle>
    <vehicle id="234" type="bike" depart="1768.993782238197">
        <route edges="edgeOutLeft edgeInRight" />
    </vehicle>
    <vehicle id="235" type="car" depart="1778.6565465802287">
        <route edges="edgeOutLeft edgeInRight" />
    </vehicle>
    <vehicle id="236" type="bike" depart="1785.557593390043">