<routes xmlns:xsi="http://www.w3.org/2001/XMLSchema-instance" xsi:noNamespaceSchemaLocation="http://sumo.dlr.de/xsd/routes_file.xsd">
    <vehicle id="0" type="bike" depart="7.133697029344711">
        <route edges="edgeOutRight edgeInBottom" />
    </vehicle>
    <vehicle id="1" type="bus" depart="13.483169517717908">
        <route edges="edgeOutBottom edgeInTop" />
    </vehicle>
    <vehicle id="2" type="car" depart="19.494218019960616">
        <route edges="edgeOutRight edgeInBottom" />
    </vehicle>
    <vehicle id="3" type="bus" depart="28.08334219885137">
        <route edges="edgeOutBottom edgeInRight" />
    </vehicle>
    <vehicle id="4" type="car" depart="36.80025627797528">
        <route edges="edgeOutBottom edgeInLeft" />
    </vehicle>
    <vehicle id="5" type="car" depart="42.83588541651798">
        <route edges="edgeOutRight edgeInTop" />
    </vehicle>
    <vehicle id="6" type="bike" depart="51.49399678514046">
        <route edges="edgeOutBottom edgeInTop" />
    </vehicle>
    <vehicle id="7" type="car" depart="59.209486001465585">
        <route edges="edgeOutLeft edgeInRight" />
    </vehicle>
    <vehicle id="8" type="car" depart="64.511496241741">
        <route edges="edgeOutBottom edgeInLeft" />
    </vehicle>
    <vehicle id="9" type="bus" depart="74.30328114892092">
        <route edges="edgeOutRight edgeInBottom" />
    </vehicle>
    <vehicle id="10" type="bike" depart="83.15128215928567">
        <route edges="edgeOutBottom edgeInRight" />
    </vehicle>
    <vehicle id="11" type="car" depart="91.53702651296271">
        <route edges="edgeOutRight edgeInTop" />
    </vehicle>
    <vehicle id="12" type="bike" depart="99.35766266323499">
        <route edges="edgeOutLeft edgeInTop" />
    </vehicle>
    <vehicle id="13" type="bus" depart="106.54577477946256">
        <route edges="edgeOutRight edgeInTop" />
    </vehicle>
    <vehicle id="14" type="bike" depart="114.99874285217581">
        <route edges="edgeOutBottom edgeInRight" />
    </vehicle>
    <vehicle id="15" type="bike" depart="124.1461137030675">
        <route edges="edgeOutLeft edgeInRight" />
    </vehicle>
    <vehicle id="16" type="bus" depart="131.26058777585644">
        <route edges="edgeOutLeft edgeInBottom" />
    </vehicle>
    <vehicle id="17" type="bike" depart="139.47159692051758">
        <route edges="edgeOutLeft edgeInTop" />
    </vehicle>
    <vehicle id="18" type="bike" depart="149.00782819882025">
        <route edges="edgeOutRight edgeInLeft" />
    </vehicle>
    <vehicle id="19" type="bike" depart="158.32144572981696">
        <route edges="edgeOutRight edgeInTop" />
    </vehicle>
    <vehicle id="20" type="car" depart="167.26717514228827">
        <route edges="edgeOutTop edgeInRight" />
    </vehicle>
    <vehicle id="21" type="bus" depart="175.70267550054783">
        <route edges="edgeOutLeft edgeInTop" />
    </vehicle>
    <vehicle id="22" type="car" depart="184.53003341637998">
        <route edges="edgeOutBottom edgeInLeft" />
    </vehicle>
    <vehicle id="23" type="car" depart="193.8958784256545">
        <route edges="edgeOutTop edgeInBottom" />
    </vehicle>
    <vehicle id="24" type="bike" depart="201.45111471550473">
        <route edges="edgeOutRight edgeInLeft" />
    </vehicle>
    <vehicle id="25" type="bike" depart="206.6013056843121">
        <route edges="edgeOutRight edgeInTop" />
    </vehicle>
    <vehicle id="26" type="bus" depart="211.86837964978398">
        <route edges="edgeOutRight edgeInBottom" />
    </vehicle>
    <vehicle id="27" type="car" depart="216.95514735351765">
        <route edges="edgeOutRight edgeInLeft" />
    </vehicle>
    <vehicle id="28" type="bike" depart="224.28481610803277">
        <route edges="edgeOutRight edgeInTop" />
    </vehicle>
    <vehicle id="29" type="bike" depart="233.52396657821436">
        <route edges="edgeOutBottom edgeInLeft" />
    </vehicle>
    <vehicle id="30" type="car" depart="238.5994373931636">
        <route edges="edgeOutLeft edgeInRight" />
    </vehicle>
    <vehicle id="31" type="car" depart="248.15089036749868">
        <route edges="edgeOutLeft edgeInTop" />
    </vehicle>
    <vehicle id="32" type="bike" depart="254.47431395458096">
        <route edges="edgeOutRight edgeInBottom" />
    </vehicle>
    <vehicle id="33" type="car" depart="262.88339435357585">
        <route edges="edgeOutTop edgeInBottom" />
    </vehicle>
    <vehicle id="34" type="bike" depart="271.02649708195463">
        <route edges="edgeOutLeft edgeInBottom" />
    </vehicle>
    <vehicle id="35" type="car" depart="278.6739335194253">
        <route edges="edgeOutRight edgeInTop" />
    </vehicle>
    <vehicle id="36" type="car" depart="285.8050769246121">
        <route edges="edgeOutTop edgeInRight" />
    </vehicle>
    <vehicle id="37" type="bike" depart="292.61609182718547">
        <route edges="edgeOutLeft edgeInBottom" />
    </vehicle>
    <vehicle id="38" type="bike" depart="298.31390372708125">
        <route edges="edgeOutRight edgeInTop" />
    </vehicle>
    <vehicle id="39" type="bike" depart="304.2252157725415">
        <route edges="edgeOutRight edgeInTop" />
    </vehicle>
    <vehicle id="40" type="car" depart="312.81335791067266">
        <route edges="edgeOutLeft edgeInRight" />
    </vehicle>
    <vehicle id="41" type="bike" depart="318.69729906166236">
        <route edges="edgeOutTop edgeInBottom" />
    </vehicle>
    <vehicle id="42" type="bus" depart="323.85274484549785">
        <route edges="edgeOutTop edgeInLeft" />
    </vehicle>
    <vehicle id="43" type="bus" depart="332.33894913485204">
        <route edges="edgeOutTop edgeInLeft" />
    </vehicle>
    <vehicle id="44" type="car" depart="338.0972220326263">
        <route edges="edgeOutRight edgeInLeft" />
    </vehicle>
    <vehicle id="45" type="bike" depart="344.90181878535657">
        <route edges="edgeOutTop edgeInRight" />
    </vehicle>
    <vehicle id="46" type="bus" depart="352.5916558075919">
        <route edges="edgeOutTop edgeInLeft" />
    </vehicle>
    <vehicle id="47" type="car" depart="358.95474642281454">
        <route edges="edgeOutTop edgeInLeft" />
    </vehicle>
    <vehicle id="48" type="bike" depart="365.85368146752046">
        <route edges="edgeOutBottom edgeInLeft" />
    </vehicle>
    <vehicle id="49" type="bike" depart="371.994986700774">
        <route edges="edgeOutLeft edgeInRight" />
    </vehicle>
    <vehicle id="50" type="bike" depart="379.3968006716547">
        <route edges="edgeOutRight edgeInBottom" />
    </vehicle>
    <vehicle id="51" type="car" depart="386.2754751390059">
        <route edges="edgeOutRight edgeInTop" />
    </vehicle>
    <vehicle id="52" type="car" depart="393.01208846799386">
        <route edges="edgeOutRight edgeInBottom" />
    </vehicle>
    <vehicle id="53" type="bus" depart="399.96817092209074">
        <route edges="edgeOutLeft edgeInTop" />
    </vehicle>
    <vehicle id="54" type="car" depart="405.50582651492635">
        <route edges="edgeOutTop edgeInBottom" />
    </vehicle>
    <vehicle id="55" type="bus" depart="411.7645179989461">
        <route edges="edgeOutRight edgeInLeft" />
    </vehicle>
    <vehicle id="56" type="bus" depart="421.57332230718004">
        <route edges="edgeOutTop edgeInRight" />
    </vehicle>
    <vehicle id="57" type="car" depart="426.73515318021805">
        <route edges="edgeOutLeft edgeInTop" />
    </vehicle>
    <vehicle id="58" type="bike" depart="433.1610954512536">
        <route edges="edgeOutLeft edgeInTop" />
    </vehicle>
    <vehicle id="59" type="car" depart="439.7443169832642">
        <route edges="edgeOutTop edgeInRight" />
    </vehicle>
    <vehicle id="60" type="car" depart="447.01705612343443">
        <route edges="edgeOutBottom edgeInLeft" />
    </vehicle>
    <vehicle id="61" type="car" depart="456.231134571614">
        <route edges="edgeOutBottom edgeInRight" />
    </vehicle>
    <vehicle id="62" type="car" depart="464.2439115426451">
        <route edges="edgeOutBottom edgeInTop" />
    </vehicle>
    <vehicle id="63" type="bike" depart="473.3443861906291">
        <route edges="edgeOutLeft edgeInRight" />
    </vehicle>
    <vehicle id="64" type="bus" depart="480.4636050179696">
        <route edges="edgeOutTop edgeInLeft" />
    </vehicle>
    <vehicle id="65" type="car" depart="488.3371449392033">
        <route edges="edgeOutBottom edgeInLeft" />
    </vehicle>
    <vehicle id="66" type="bike" depart="496.36194783368796">
        <route edges="edgeOutRight edgeInLeft" />
    </vehicle>
    <vehicle id="67" type="car" depart="502.37971312527975">
        <route edges="edgeOutBottom edgeInTop" />
    </vehicle>
    <vehicle id="68" type="bus" depart="508.71133378683083">
        <route edges="edgeOutRight edgeInTop" />
    </vehicle>
    <vehicle id="69" type="bike" depart="518.0463576687976">
        <route edges="edgeOutRight edgeInBottom" />
    </vehicle>
    <vehicle id="70" type="car" depart="526.1698063465291">
        <route edges="edgeOutBottom edgeInLeft" />
    </vehicle>
    <vehicle id="71" type="bike" depart="535.5985185450307">
        <route edges="edgeOutRight edgeInTop" />
    </vehicle>
    <vehicle id="72" type="bus" depart="543.922184461584">
        <route edges="edgeOutBottom edgeInLeft" />
    </vehicle>
    <vehicle id="73" type="car" depart="551.8273216596797">
        <route edges="edgeOutRight edgeInLeft" />
    </vehicle>
    <vehicle id="74" type="bus" depart="560.4188855831004">
        <route edges="edgeOutTop edgeInLeft" />
    </vehicle>
    <vehicle id="75" type="bus" depart="568.5395781440598">
        <route edges="edgeOutLeft edgeInTop" />
    </vehicle>
    <vehicle id="76" type="bus" depart="576.6292337670725">
        <route edges="edgeOutRight edgeInBottom" />
    </vehicle>
    <vehicle id="77" type="bus" depart="584.3915066779265">
        <route edges="edgeOutTop edgeInLeft" />
    </vehicle>
    <vehicle id="78" type="bus" depart="594.1892593693165">
        <route edges="edgeOutBottom edgeInLeft" />
    </vehicle>
    <vehicle id="79" type="bike" depart="600.2078938663323">
        <route edges="edgeOutBottom edgeInRight" />
    </vehicle>
    <vehicle id="80" type="car" depart="606.3381347123184">
        <route edges="edgeOutBottom edgeInLeft" />
    </vehicle>
    <vehicle id="81" type="bike" depart="615.419504798692">
        <route edges="edgeOutLeft edgeInBottom" />
    </vehicle>
    <vehicle id="82" type="car" depart="623.7847767896989">
        <route edges="edgeOutTop edgeInLeft" />
    </vehicle>
    <vehicle id="83" type="bus" depart="629.9209590710573">
        <route edges="edgeOutRight edgeInTop" />
    </vehicle>
    <vehicle id="84" type="bike" depart="634.9416323671862">
        <route edges="edgeOutRight edgeInTop" />
    </vehicle>
    <vehicle id="85" type="bike" depart="643.2277166392782">
        <route edges="edgeOutTop edgeInBottom" />
    </vehicle>
    <vehicle id="86" type="bike" depart="648.7707503287074">
        <route edges="edgeOutBottom edgeInRight" />
    </vehicle>
    <vehicle id="87" type="bus" depart="656.0526720485093">
        <route edges="edgeOutBottom edgeInLeft" />
    </vehicle>
    <vehicle id="88" type="bike" depart="664.1306881068037">
        <route edges="edgeOutBottom edgeInLeft" />
    </vehicle>
    <vehicle id="89" type="bike" depart="673.4160500556934">
        <route edges="edgeOutRight edgeInTop" />
    </vehicle>
    <vehicle id="90" type="bus" depart="681.8749275162162">
        <route edges="edgeOutBottom edgeInLeft" />
    </vehicle>
    <vehicle id="91" type="bike" depart="687.7425249935931">
        <route edges="edgeOutBottom edgeInRight" />
    </vehicle>
    <vehicle id="92" type="bus" depart="693.5768352829352">
        <route edges="edgeOutTop edgeInRight" />
    </vehicle>
    <vehicle id="93" type="bus" depart="702.4873171696939">
        <route edges="edgeOutLeft edgeInBottom" />
    </vehicle>
    <vehicle id="94" type="car" depart="710.1015097057104">
        <route edges="edgeOutLeft edgeInRight" />
    </vehicle>
    <vehicle id="95" type="bus" depart="719.0631588543021">
        <route edges="edgeOutRight edgeInTop" />
    </vehicle>
    <vehicle id="96" type="bus" depart="727.8737934240328">
        <route edges="edgeOutRight edgeInBottom" />
    </vehicle>
    <vehicle id="97" type="car" depart="737.2033770936673">
        <route edges="edgeOutLeft edgeInTop" />
    </vehicle>
    <vehicle id="98" type="bike" depart="742.6710924445563">
        <route edges="edgeOutRight edgeInLeft" />
    </vehicle>
    <vehicle id="99" type="bike" depart="749.3417002605462">
        <route edges="edgeOutRight edgeInTop" />
    </vehicle>
    <vehicle id="100" type="bus" depart="757.6374264987835">
        <route edges="edgeOutTop edgeInRight" />
    </vehicle>
    <vehicle id="101" type="bus" depart="766.7450962945821">
        <route edges="edgeOutLeft edgeInTop" />
    </vehicle>
    <vehicle id="102" type="car" depart="773.0441826706736">
        <route edges="edgeOutLeft edgeInRight" />
    </vehicle>
    <vehicle id="103" type="bus" depart="778.2087595399223">
        <route edges="edgeOutBottom edgeInRight" />
    </vehicle>
    <vehicle id="104" type="bus" depart="783.5533623188636">
        <route edges="edgeOutTop edgeInLeft" />
    </vehicle>
    <vehicle id="105" type="bus" depart="789.1937783970967">
        <route edges="edgeOutLeft edgeInTop" />
    </vehicle>
    <vehicle id="106" type="bike" depart="797.3700676519884">
        <route edges="edgeOutBottom edgeInLeft" />
    </vehicle>
    <vehicle id="107" type="car" depart="803.7041546422911">
        <route edges="edgeOutLeft edgeInBottom" />
    </vehicle>
    <vehicle id="108" type="car" depart="811.539702217627">
        <route edges="edgeOutLeft edgeInTop" />
    </vehicle>
    <vehicle id="109" type="bus" depart="819.3231265218195">
        <route edges="edgeOutBottom edgeInLeft" />
    </vehicle>
    <vehicle id="110" type="car" depart="828.7506236496826">
        <route edges="edgeOutTop edgeInRight" />
    </vehicle>
    <vehicle id="111" type="bus" depart="835.4258868014703">
        <route edges="edgeOutLeft edgeInTop" />
    </vehicle>
    <vehicle id="112" type="car" depart="844.5083934314036">
        <route edges="edgeOutTop edgeInBottom" />
    </vehicle>
    <vehicle id="113" type="bus" depart="851.7612063874468">
        <route edges="edgeOutLeft edgeInBottom" />
    </vehicle>
    <vehicle id="114" type="bike" depart="858.0954545603208">
        <route edges="edgeOutLeft edgeInRight" />
    </vehicle>
    <vehicle id="115" type="bus" depart="866.385594919313">
        <route edges="edgeOutBottom edgeInRight" />
    </vehicle>
    <vehicle id="116" type="car" depart="873.2923592873871">
        <route edges="edgeOutRight edgeInLeft" />
    </vehicle>
    <vehicle id="117" type="car" depart="880.365065801134">
        <route edges="edgeOutTop edgeInRight" />
    </vehicle>
    <vehicle id="118" type="bike" depart="888.2784862877562">
        <route edges="edgeOutRight edgeInLeft" />
    </vehicle>
    <vehicle id="119" type="car" depart="894.0994536480217">
        <route edges="edgeOutLeft edgeInRight" />
    </vehicle>
    <vehicle id="120" type="bike" depart="902.5368064625884">
        <route edges="edgeOutBottom edgeInTop" />
    </vehicle>
    <vehicle id="121" type="bus" depart="911.9837558789536">
        <route edges="edgeOutBottom edgeInTop" />
    </vehicle>
    <vehicle id="122" type="car" depart="919.8624582367455">
        <route edges="edgeOutLeft edgeInTop" />
    </vehicle>
    <vehicle id="123" type="car" depart="926.0837261975399">
        <route edges="edgeOutTop edgeInLeft" />
    </vehicle>
    <vehicle id="124" type="car" depart="931.6889335829418">
        <route edges="edgeOutBottom edgeInLeft" />
    </vehicle>
    <vehicle id="125" type="bus" depart="941.551378950566">
        <route edges="edgeOutTop edgeInRight" />
    </vehicle>
    <vehicle id="126" type="bus" depart="951.1956915605872">
        <route edges="edgeOutBottom edgeInLeft" />
    </vehicle>
    <vehicle id="127" type="bus" depart="959.002214324487">
        <route edges="edgeOutLeft edgeInTop" />
    </vehicle>
    <vehicle id="128" type="car" depart="965.2408676063219">
        <route edges="edgeOutTop edgeInLeft" />
    </vehicle>
    <vehicle id="129" type="bike" depart="972.1050927712355">
        <route edges="edgeOutRight edgeInTop" />
    </vehicle>
    <vehicle id="130" type="car" depart="978.7544346801463">
        <route edges="edgeOutRight edgeInBottom" />
    </vehicle>
    <vehicle id="131" type="bike" depart="987.2353870122844">
        <route edges="edgeOutLeft edgeInTop" />
    </vehicle>
    <vehicle id="132" type="bike" depart="993.9656807071166">
        <route edges="edgeOutRight edgeInTop" />
    </vehicle>
    <vehicle id="133" type="bus" depart="1000.84426228071">
        <route edges="edgeOutLeft edgeInTop" />
    </vehicle>
    <vehicle id="134" type="car" depart="1010.5735535553584">
        <route edges="edgeOutRight edgeInLeft" />
    </vehicle>
    <vehicle id="135" type="car" depart="1019.1799702262846">
        <route edges="edgeOutRight edgeInTop" />
    </vehicle>
    <vehicle id="136" type="car" depart="1026.2146226864465">
        <route edges="edgeOutRight edgeInTop" />
    </vehicle>
    <vehicle id="137" type="bike" depart="1032.6819105526008">
        <route edges="edgeOutRight edgeInBottom" />
    </vehicle>
    <vehicle id="138" type="bike" depart="1039.0201573605996">
        <route edges="edgeOutRight edgeInLeft" />
    </vehicle>
    <vehicle id="139" type="bike" depart="1048.5973625223244">
        <route edges="edgeOutLeft edgeInRight" />
    </vehicle>
    <vehicle id="140" type="car" depart="1056.4446248155534">
        <route edges="edgeOutTop edgeInBottom" />
    </vehicle>
    <vehicle id="141" type="bike" depart="1062.3709595438725">
        <route edges="edgeOutLeft edgeInRight" />
    </vehicle>
    <vehicle id="142" type="bike" depart="1068.5355011701745">
        <route edges="edgeOutRight edgeInLeft" />
    </vehicle>
    <vehicle id="143" type="bus" depart="1073.596216492073">
        <route edges="edgeOutTop edgeInBottom" />
    </vehicle>
    <vehicle id="144" type="car" depart="1081.2982383585193">
        <route edges="edgeOutLeft edgeInBottom" />
    </vehicle>
    <vehicle id="145" type="car" depart="1089.1157673656508">
        <route edges="edgeOutBottom edgeInRight" />
    </vehicle>
    <vehicle id="146" type="bus" depart="1095.798821737874">
        <route edges="edgeOutTop edgeInBottom" />
    </vehicle>
    <vehicle id="147" type="car" depart="1101.3780198129054">
        <route edges="edgeOutRight edgeInBottom" />
    </vehicle>
    <vehicle id="148" type="car" depart="1110.9031924871476">
        <route edges="edgeOutLeft edgeInTop" />
    </vehicle>
    <vehicle id="149" type="bus" depart="1120.1076829833444">
        <route edges="edgeOutTop edgeInBottom" />
    </vehicle>
    <vehicle id="150" type="car" depart="1125.72081006108">
        <route edges="edgeOutBottom edgeInLeft" />
    </vehicle>
    <vehicle id="151" type="car" depart="1135.2949098105016">
        <route edges="edgeOutRight edgeInLeft" />
    </vehicle>
    <vehicle id="152" type="bus" depart="1141.724832418843">
        <route edges="edgeOutBottom edgeInTop" />
    </vehicle>
    <vehicle id="153" type="car" depart="1148.4560148033552">
        <route edges="edgeOutTop edgeInLeft" />
    </vehicle>
    <vehicle id="154" type="bus" depart="1153.5362985257932">
        <route edges="edgeOutRight edgeInTop" />
    </vehicle>
    <vehicle id="155" type="bus" depart="1159.5043707256455">
        <route edges="edgeOutRight edgeInBottom" />
    </vehicle>
    <vehicle id="156" type="bus" depart="1165.096701108628">
        <route edges="edgeOutRight edgeInTop" />
    </vehicle>
    <vehicle id="157" type="bus" depart="1174.4223645080122">
        <route edges="edgeOutTop edgeInRight" />
    </vehicle>
    <vehicle id="158" type="bus" depart="1179.5347980063968">
        <route edges="edgeOutRight edgeInBottom" />
    </vehicle>
    <vehicle id="159" type="bike" depart="1185.144067870688">
        <route edges="edgeOutLeft edgeInRight" />
    </vehicle>
    <vehicle id="160" type="bus" depart="1192.105390707185">
        <route edges="edgeOutLeft edgeInTop" />
    </vehicle>
    <vehicle id="161" type="car" depart="1201.179628579511">
        <route edges="edgeOutTop edgeInBottom" />
    </vehicle>
    <vehicle id="162" type="bike" depart="1208.6463482863958">
        <route edges="edgeOutBottom edgeInLeft" />
    </vehicle>
    <vehicle id="163" type="car" depart="1214.5494740791473">
        <route edges="edgeOutLeft edgeInRight" />
    </vehicle>
    <vehicle id="164" type="car" depart="1220.2988770052375">
        <route edges="edgeOutRight edgeInLeft" />
    </vehicle>
    <vehicle id="165" type="bus" depart="1228.908272880144">
        <route edges="edgeOutLeft edgeInTop" />
    </vehicle>
    <vehicle id="166" type="bus" depart="1236.0997374111862">
        <route edges="edgeOutLeft edgeInBottom" />
    </vehicle>
    <vehicle id="167" type="bus" depart="1243.6234152298825">
        <route edges="edgeOutBottom edgeInRight" />
    </vehicle>
    <vehicle id="168" type="bike" depart="1253.15477898145">
        <route edges="edgeOutRight edgeInTop" />
    </vehicle>
    <vehicle id="169" type="car" depart="1259.5004372870676">
        <route edges="edgeOutTop edgeInRight" />
    </vehicle>
    <vehicle id="170" type="bus" depart="1266.693968058488">
        <route edges="edgeOutBottom edgeInLeft" />
    </vehicle>
    <vehicle id="171" type="bike" depart="1275.080483308488">
        <route edges="edgeOutRight edgeInLeft" />
    </vehicle>
    <vehicle id="172" type="car" depart="1280.8749154584557">
        <route edges="edgeOutTop edgeInBottom" />
    </vehicle>
    <vehicle id="173" type="bus" depart="1287.9315480468588">
        <route edges="edgeOutLeft edgeInTop" />
    </vehicle>
    <vehicle id="174" type="bus" depart="1294.0074239335197">
        <route edges="edgeOutTop edgeInBottom" />
    </vehicle>
    <vehicle id="175" type="bike" depart="1299.7853684357558">
        <route edges="edgeOutLeft edgeInTop" />
    </vehicle>
    <vehicle id="176" type="car" depart="1307.6350616946372">
        <route edges="edgeOutRight edgeInTop" />
    </vehicle>
    <vehicle id="177" type="bike" depart="1314.3900406596508">
        <route edges="edgeOutTop edgeInRight" />
    </vehicle>
    <vehicle id="178" type="car" depart="1321.8742039129163">
        <route edges="edgeOutRight edgeInTop" />
    </vehicle>
    <vehicle id="179" type="car" depart="1329.6298940787863">
        <route edges="edgeOutLeft edgeInRight" />
    </vehicle>
    <vehicle id="180" type="bike" depart="1335.8664407013512">
        <route edges="edgeOutTop edgeInBottom" />
    </vehicle>
    <vehicle id="181" type="bus" depart="1341.3997744695403">
        <route edges="edgeOutBottom edgeInRight" />
    </vehicle>
    <vehicle id="182" type="bus" depart="1347.6935169298877">
        <route edges="edgeOutRight edgeInTop" />
    </vehicle>
    <vehicle id="183" type="bike" depart="1355.7063643756628">
        <route edges="edgeOutBottom edgeInTop" />
    </vehicle>
    <vehicle id="184" type="bike" depart="1365.6641964604007">
        <route edges="edgeOutBottom edgeInRight" />
    </vehicle>
    <vehicle id="185" type="bike" depart="1371.4204036804233">
        <route edges="edgeOutBottom edgeInLeft" />
    </vehicle>
    <vehicle id="186" type="bus" depart="1379.754649541446">
        <route edges="edgeOutLeft edgeInRight" />
    </vehicle>
    <vehicle id="187" type="car" depart="1387.654581082345">
        <route edges="edgeOutBottom edgeInLeft" />
    </vehicle>
    <vehicle id="188" type="car" depart="1396.6974253037356">
        <route edges="edgeOutTop edgeInRight" />
    </vehicle>
    <vehicle id="189" type="car" depart="1406.2569832546733">
        <route edges="edgeOutTop edgeInBottom" />
    </vehicle>
    <vehicle id="190" type="car" depart="1415.6005488260068">
        <route edges="edgeOutBottom edgeInRight" />
    </vehicle>
    <vehicle id="191" type="car" depart="1423.7129679752327">
        <route edges="edgeOutTop edgeInRight" />
    </vehicle>
    <vehicle id="192" type="car" depart="1431.085453213925">
        <route edges="edgeOutBottom edgeInRight" />
    </vehicle>
    <vehicle id="193" type="bike" depart="1440.629611893794">
        <route edges="edgeOutTop edgeInRight" />
    </vehicle>
    <vehicle id="194" type="car" depart="1449.5664554968994">
        <route edges="edgeOutLeft edgeInTop" />
    </vehicle>
    <vehicle id="195" type="bus" depart="1459.5407257586685">
        <route edges="edgeOutLeft edgeInTop" />
    </vehicle>
    <vehicle id="196" type="bike" depart="1465.3737141053448">
        <route edges="edgeOutBottom edgeInRight" />
    </vehicle>
    <vehicle id="197" type="bus" depart="1471.5842644694653">
        <route edges="edgeOutLeft edgeInTop" />
    </vehicle>
    <vehicle id="198" type="bus" depart="1480.8127798115913">
        <route edges="edgeOutLeft edgeInBottom" />
    </vehicle>
    <vehicle id="199" type="car" depart="1488.2646200924178">
        <route edges="edgeOutTop edgeInRight" />
    </vehicle>
    <vehicle id="200" type="car" depart="1493.9678842442504">
        <route edges="edgeOutTop edgeInRight" />
    </vehicle>
    <vehicle id="201" type="car" depart="1503.399256647101">
        <route edges="edgeOutBottom edgeInTop" />
    </vehicle>
    <vehicle id="202" type="car" depart="1512.861283091916">
        <route edges="edgeOutTop edgeInBottom" />
    </vehicle>
    <vehicle id="203" type="car" depart="1520.9967300869725">
        <route edges="edgeOutRight edgeInBottom" />
    </vehicle>
    <vehicle id="204" type="car" depart="1528.5952975243274">
        <route edges="edgeOutTop edgeInBottom" />
    </vehicle>
    <vehicle id="205" type="bike" depart="1535.0352463769868">
        <route edges="edgeOutLeft edgeInTop" />
    </vehicle>
    <vehicle id="206" type="bike" depart="1541.8896108171812">
        <route edges="edgeOutRight edgeInLeft" />
    </vehicle>
    <vehicle id="207" type="car" depart="1547.1673977144694">
        <route edges="edgeOutBottom edgeInLeft" />
    </vehicle>
    <vehicle id="208" type="car" depart="1552.4927899739318">
        <route edges="edgeOutRight edgeInLeft" />
    </vehicle>
    <vehicle id="209" type="bus" depart="1559.0238591162347">
        <route edges="edgeOutTop edgeInLeft" />
    </vehicle>
    <vehicle id="210" type="bike" depart="1564.9362192279161">
        <route edges="edgeOutLeft edgeInBottom" />
    </vehicle>
    <vehicle id="211" type="bike" depart="1572.8878328036067">
        <route edges="edgeOutLeft edgeInRight" />
    </vehicle>
    <vehicle id="212" type="bike" depart="1578.7672821144095">
        <route edges="edgeOutTop edgeInRight" />
    </vehicle>
    <vehicle id="213" type="bike" depart="1585.7641622341184">
        <route edges="edgeOutTop edgeInRight" />
    </vehicle>
    <vehicle id="214" type="car" depart="1592.6113640626932">
        <route edges="edgeOutLeft edgeInBottom" />
    </vehicle>
    <vehicle id="215" type="bus" depart="1598.9743427724663">
        <route edges="edgeOutRight edgeInBottom" />
    </vehicle>
    <vehicle id="216" type="bus" depart="1608.8407383322613">
        <route edges="edgeOutBottom edgeInRight" />
    </vehicle>
    <vehicle id="217" type="car" depart="1615.5685413213919">
        <route edges="edgeOutTop edgeInRight" />
    </vehicle>
    <vehicle id="218" type="bus" depart="1625.0266296434745">
        <route edges="edgeOutTop edgeInLeft" />
    </vehicle>
    <vehicle id="219" type="car" depart="1634.8795109141447">
        <route edges="edgeOutTop edgeInRight" />
    </vehicle>
    <vehicle id="220" type="bike" depart="1642.707426987024">
        <route edges="edgeOutLeft edgeInRight" />
    </vehicle>
    <vehicle id="221" type="bike" depart="1647.9105371851088">
        <route edges="edgeOutRight edgeInTop" />
    </vehicle>
    <vehicle id="222" type="car" depart="1656.0560727170161">
        <route edges="edgeOutBottom edgeInTop" />
    </vehicle>
    <vehicle id="223" type="bus" depart="1661.4699589697912">
        <route edges="edgeOutBottom edgeInTop" />
    </vehicle>
    <vehicle id="224" type="bike" depart="1667.0460318942794">
        <route edges="edgeOutLeft edgeInBottom" />
    </vehicle>
    <vehicle id="225" type="car" depart="1674.9953403211402">
        <route edges="edgeOutTop edgeInRight" />
    </vehicle>
    <vehicle id="226" type="bus" depart="1683.3951856695535">
        <route edges="edgeOutBottom edgeInRight" />
    </vehicle>
    <vehicle id="227" type="bike" depart="1692.7169145775356">
        <route edges="edgeOutLeft edgeInTop" />
    </vehicle>
    <vehicle id="228" type="bike" depart="1698.3248891305313">
        <route edges="edgeOutTop edgeInBottom" />
    </vehicle>
    <vehicle id="229" type="bus" depart="1705.8783837164544">
        <route edges="edgeOutRight edgeInLeft" />
    </vehicle>
    <vehicle id="230" type="bike" depart="1712.896756574415">
        <route edges="edgeOutBottom edgeInRight" />
    </vehicle>
    <vehicle id="231" type="bus" depart="1721.7603168627675">
        <route edges="edgeOutRight edgeInTop" />
    </vehicle>
    <vehicle id="232" type="bus" depart="1731.7060894806377">
        <route edges="edgeOutBottom edgeInRight" />
    </vehicle>
    <vehicle id="233" type="bike" depart="1739.5879214953288">
        <route edges="edgeOutLeft edgeInTop" />
    </vehicle>
    <vehicle id="234" type="bus" depart="1746.6934943075178">
        <route edges="edgeOutBottom edgeInLeft" />
    </vehicle>
    <vehicle id="235" type="bike" depart="1753.745925015596">
        <route edges="edgeOutTop edgeInRight" />
    </vehicle>
    <vehicle id="236" type="bus" depart="1759.9306941813888">